 %mem=500MB
 %nproc=2
 #p b3lyp def2svp force units(au)
 
 generate for AIMD to electronic calculate potential and force.
 
0 1
O        0.18818805E+01   -0.21508742E+00    0.43630673E+00
H        0.19678726E+01    0.13292588E+01   -0.47533451E+00
H        0.24097225E+01   -0.15987753E+01   -0.35335289E+00
 
