 %mem=500MB
 %nproc=2
 #p b3lyp def2svp force units(au) nosymm
 
 generate for AIMD to electronic calculate potential and force.
 
0 1
O        0.26035344E+01   -0.45182177E+00    0.24048395E+01
H        0.40089935E+01   -0.82808350E+00    0.10711540E+01
H        0.21288044E+01   -0.17236461E+01    0.86397536E+00
 
