 %mem=500MB
 %nproc=2
 #p b3lyp def2svp force units(au)
 
 generate for AIMD to electronic calculate potential and force.
 
0 1
O        0.19226239E+02   -0.21988107E+01    0.24160439E+01
H        0.17744770E+02   -0.83685467E+00    0.24474692E+01
H        0.19563838E+02   -0.10973967E+01    0.40749664E+01
 
