 %mem=500MB
 %nproc=2
 #p b3lyp def2svp force units(au)
 
 generate for AIMD to electronic calculate potential and force.
 
0 1
O        0.42906982E+01    0.96141199E+00    0.11211731E+01
H        0.56498981E+01    0.15449121E+01    0.18425161E+01
H        0.42637356E+01    0.12806979E+00    0.27655103E+01
 
