 %mem=500MB
 %nproc=2
 #p b3lyp def2svp force units(au) nosymm
 
 generate for AIMD to electronic calculate potential and force.
 
0 1
O        0.36718663E+01   -0.10806572E+01    0.16726695E+01
H        0.47804380E+01    0.11299758E+00    0.22576308E+01
H        0.31487663E+01    0.79740188E+00    0.15708554E+01
 
